Circuit: * C:\Projects\Ehryk\ehryk.github.com\Circuits\3rd Order Butterworth LPAD\Simulation\WithAttenuation.asc


Date: Mon Apr 10 13:50:24 2017
Total elapsed time: 0.047 seconds.

tnom = 27
temp = 27
method = trap
totiter = 0
traniter = 0
tranpoints = 0
accept = 0
rejected = 0
matrix size = 8
fillins = 1
solver = Normal

